 xtb: 6.7.1 (edcfbbe)
          06072614023D

 20 20  0     0  0            999 V2000
    3.8667    0.3742    0.0000 O   0  0  0  0  0  0  0  0  0  0  0  0
   -2.6069    1.3744    0.0025 O   0  0  0  0  0  0  0  0  0  0  0  0
   -1.5840   -0.6650    0.0006 N   0  0  0  0  0  0  0  0  0  0  0  0
   -0.2204   -0.3433    0.0000 C   0  0  0  0  0  0  0  0  0  0  0  0
    0.2476    0.9659    0.0006 C   0  0  0  0  0  0  0  0  0  0  0  0
    0.6979   -1.3923   -0.0007 C   0  0  0  0  0  0  0  0  0  0  0  0
    1.6073    1.2138    0.0006 C   0  0  0  0  0  0  0  0  0  0  0  0
    2.0539   -1.1436   -0.0007 C   0  0  0  0  0  0  0  0  0  0  0  0
    2.5206    0.1673    0.0000 C   0  0  0  0  0  0  0  0  0  0  0  0
   -2.6652    0.1663    0.0022 C   0  0  0  0  0  0  0  0  0  0  0  0
   -3.9745   -0.5998    0.0010 C   0  0  0  0  0  0  0  0  0  0  0  0
   -0.4537    1.7827    0.0011 H   0  0  0  0  0  0  0  0  0  0  0  0
    0.3448   -2.4142   -0.0011 H   0  0  0  0  0  0  0  0  0  0  0  0
   -1.7738   -1.6577   -0.0006 H   0  0  0  0  0  0  0  0  0  0  0  0
    1.9618    2.2360    0.0010 H   0  0  0  0  0  0  0  0  0  0  0  0
    2.7682   -1.9512   -0.0011 H   0  0  0  0  0  0  0  0  0  0  0  0
   -4.0516   -1.2100   -0.8968 H   0  0  0  0  0  0  0  0  0  0  0  0
   -4.7988    0.1067    0.0228 H   0  0  0  0  0  0  0  0  0  0  0  0
   -4.0347   -1.2473    0.8734 H   0  0  0  0  0  0  0  0  0  0  0  0
    4.0493    1.3214    0.0006 H   0  0  0  0  0  0  0  0  0  0  0  0
  3  4  1  0  0  0  0
  4  5  4  0  0  0  0
  4  6  4  0  0  0  0
  5  7  4  0  0  0  0
  6  8  4  0  0  0  0
  1  9  1  0  0  0  0
  7  9  4  0  0  0  0
  8  9  4  0  0  0  0
  2 10  2  0  0  0  0
  3 10  1  0  0  0  0
 10 11  1  0  0  0  0
  5 12  1  0  0  0  0
  6 13  1  0  0  0  0
  3 14  1  0  0  0  0
  7 15  1  0  0  0  0
  8 16  1  0  0  0  0
 11 17  1  0  0  0  0
 11 18  1  0  0  0  0
 11 19  1  0  0  0  0
  1 20  1  0  0  0  0
M  END
