 xtb: 6.7.1 (edcfbbe)
          06092600483D

 29 28  0     0  0            999 V2000
    3.7847    4.1185   -3.2892 O   0  0  0  0  0  0  0  0  0  0  0  0
    6.7021    3.6283   -1.5624 O   0  0  0  0  0  0  0  0  0  0  0  0
    2.2856    5.8224   -2.9548 O   0  0  0  0  0  0  0  0  0  0  0  0
    5.6485    3.1168   -1.3041 C   0  0  0  0  0  0  0  0  0  0  0  0
    3.5449    5.3301   -2.6124 C   0  0  0  0  0  0  0  0  0  0  0  0
    5.1443    1.7435   -1.4217 C   0  0  0  0  0  0  0  0  0  0  0  0
    4.5906    6.3826   -3.0040 C   0  0  0  0  0  0  0  0  0  0  0  0
    4.3786    1.7629   -2.1964 H   0  0  0  0  0  0  0  0  0  0  0  0
    4.6625    1.4519   -0.4917 H   0  0  0  0  0  0  0  0  0  0  0  0
    5.9332    1.0368   -1.6866 H   0  0  0  0  0  0  0  0  0  0  0  0
    4.4800    7.2615   -2.3774 H   0  0  0  0  0  0  0  0  0  0  0  0
    5.5817    5.9590   -2.8637 H   0  0  0  0  0  0  0  0  0  0  0  0
    4.1094    8.2506    3.7383 H   0  0  0  0  0  0  0  0  0  0  0  0
    1.6048    5.1968   -2.6621 H   0  0  0  0  0  0  0  0  0  0  0  0
    3.5917    8.5806    2.9894 O   0  0  0  0  0  0  0  0  0  0  0  0
    3.5993    4.9522   -1.2183 N   0  0  0  0  0  0  0  0  0  0  0  0
    3.6319    5.8950   -0.1989 C   0  0  0  0  0  0  0  0  0  0  0  0
    4.3155    5.5974    0.9801 C   0  0  0  0  0  0  0  0  0  0  0  0
    2.9351    7.1035   -0.2708 C   0  0  0  0  0  0  0  0  0  0  0  0
    3.6216    7.6761    1.9635 C   0  0  0  0  0  0  0  0  0  0  0  0
    4.3101    6.4728    2.0480 C   0  0  0  0  0  0  0  0  0  0  0  0
    2.9338    7.9805    0.7943 C   0  0  0  0  0  0  0  0  0  0  0  0
    4.8667    4.6713    1.0509 H   0  0  0  0  0  0  0  0  0  0  0  0
    2.3866    7.3532   -1.1651 H   0  0  0  0  0  0  0  0  0  0  0  0
    4.8531    6.2204    2.9476 H   0  0  0  0  0  0  0  0  0  0  0  0
    2.3971    8.9145    0.7363 H   0  0  0  0  0  0  0  0  0  0  0  0
    4.4496    6.6669   -4.0422 H   0  0  0  0  0  0  0  0  0  0  0  0
    4.3254    4.1927   -1.1008 H   0  0  0  0  0  0  0  0  0  0  0  0
    3.7197    4.2701   -4.2436 H   0  0  0  0  0  0  0  0  0  0  0  0
  2  4  2  0  0  0  0
  1  5  1  0  0  0  0
  3  5  1  0  0  0  0
  4  6  1  0  0  0  0
  5  7  1  0  0  0  0
  6  8  1  0  0  0  0
  6  9  1  0  0  0  0
  6 10  1  0  0  0  0
  7 11  1  0  0  0  0
  7 12  1  0  0  0  0
  3 14  1  0  0  0  0
 13 15  1  0  0  0  0
  5 16  1  0  0  0  0
 16 17  1  0  0  0  0
 17 18  4  0  0  0  0
 17 19  4  0  0  0  0
 15 20  1  0  0  0  0
 18 21  4  0  0  0  0
 20 21  4  0  0  0  0
 19 22  4  0  0  0  0
 20 22  4  0  0  0  0
 18 23  1  0  0  0  0
 19 24  1  0  0  0  0
 21 25  1  0  0  0  0
 22 26  1  0  0  0  0
  7 27  1  0  0  0  0
 16 28  1  0  0  0  0
  1 29  1  0  0  0  0
M  END
