 xtb: 6.7.1 (edcfbbe)
          06072622163D

 28 28  0     0  0            999 V2000
  -10.7213    1.4452   -1.2817 C   0  0  0  0  0  0  0  0  0  0  0  0
   -9.2987    1.0098   -1.4229 C   0  0  0  0  0  0  0  0  0  0  0  0
   -8.9375   -0.1251   -1.6566 O   0  0  0  0  0  0  0  0  0  0  0  0
   -8.4582    2.0332   -1.2659 O   0  0  0  0  0  0  0  0  0  0  0  0
   -7.0202    1.8193   -1.3497 C   0  0  0  0  0  0  0  0  0  0  0  0
   -6.5746    1.0368   -0.1107 C   0  0  0  0  0  0  0  0  0  0  0  0
   -6.7066    1.1905   -2.5472 O   0  0  0  0  0  0  0  0  0  0  0  0
   -6.5136    3.1589   -1.3272 N   0  0  0  0  0  0  0  0  0  0  0  0
   -5.2187    3.5250   -1.6883 C   0  0  0  0  0  0  0  0  0  0  0  0
   -4.1820    2.6211   -1.8956 C   0  0  0  0  0  0  0  0  0  0  0  0
   -2.9007    3.0650   -2.1726 C   0  0  0  0  0  0  0  0  0  0  0  0
   -2.6228    4.4214   -2.2512 C   0  0  0  0  0  0  0  0  0  0  0  0
   -1.3708    4.9043   -2.5160 O   0  0  0  0  0  0  0  0  0  0  0  0
   -3.6568    5.3330   -2.0612 C   0  0  0  0  0  0  0  0  0  0  0  0
   -4.9319    4.8893   -1.7863 C   0  0  0  0  0  0  0  0  0  0  0  0
  -11.3664    0.5733   -1.2530 H   0  0  0  0  0  0  0  0  0  0  0  0
  -10.9830    2.0695   -2.1327 H   0  0  0  0  0  0  0  0  0  0  0  0
  -10.8309    2.0415   -0.3807 H   0  0  0  0  0  0  0  0  0  0  0  0
   -7.0153    0.0432   -0.1193 H   0  0  0  0  0  0  0  0  0  0  0  0
   -6.9015    1.5760    0.7729 H   0  0  0  0  0  0  0  0  0  0  0  0
   -5.4934    0.9589   -0.1005 H   0  0  0  0  0  0  0  0  0  0  0  0
   -7.0516    0.2806   -2.5413 H   0  0  0  0  0  0  0  0  0  0  0  0
   -7.2158    3.8387   -1.5833 H   0  0  0  0  0  0  0  0  0  0  0  0
   -4.3701    1.5611   -1.8742 H   0  0  0  0  0  0  0  0  0  0  0  0
   -2.1148    2.3408   -2.3319 H   0  0  0  0  0  0  0  0  0  0  0  0
   -0.7474    4.1715   -2.6259 H   0  0  0  0  0  0  0  0  0  0  0  0
   -3.4394    6.3869   -2.1338 H   0  0  0  0  0  0  0  0  0  0  0  0
   -5.7233    5.6083   -1.6406 H   0  0  0  0  0  0  0  0  0  0  0  0
  1  2  1  0  0  0  0
  2  3  2  0  0  0  0
  2  4  1  0  0  0  0
  4  5  1  0  0  0  0
  5  6  1  0  0  0  0
  5  7  1  0  0  0  0
  5  8  1  0  0  0  0
  8  9  1  0  0  0  0
  9 10  4  0  0  0  0
 10 11  4  0  0  0  0
 11 12  4  0  0  0  0
 12 13  1  0  0  0  0
 12 14  4  0  0  0  0
  9 15  4  0  0  0  0
 14 15  4  0  0  0  0
  1 16  1  0  0  0  0
  1 17  1  0  0  0  0
  1 18  1  0  0  0  0
  6 19  1  0  0  0  0
  6 20  1  0  0  0  0
  6 21  1  0  0  0  0
  7 22  1  0  0  0  0
  8 23  1  0  0  0  0
 10 24  1  0  0  0  0
 11 25  1  0  0  0  0
 13 26  1  0  0  0  0
 14 27  1  0  0  0  0
 15 28  1  0  0  0  0
M  END
