 xtb: 6.7.1 (edcfbbe)
          06072614023D

 13 12  0     0  0            999 V2000
   -0.0000    0.5624   -0.0000 O   0  0  0  0  0  0  0  0  0  0  0  0
    1.3481   -1.2665   -0.0017 O   0  0  0  0  0  0  0  0  0  0  0  0
   -1.3481   -1.2665    0.0014 O   0  0  0  0  0  0  0  0  0  0  0  0
    1.2179   -0.0733   -0.0009 C   0  0  0  0  0  0  0  0  0  0  0  0
   -1.2179   -0.0733    0.0008 C   0  0  0  0  0  0  0  0  0  0  0  0
    2.3059    0.9435    0.0011 C   0  0  0  0  0  0  0  0  0  0  0  0
   -2.3059    0.9434   -0.0007 C   0  0  0  0  0  0  0  0  0  0  0  0
    3.2700    0.4468   -0.0067 H   0  0  0  0  0  0  0  0  0  0  0  0
    2.2075    1.5696    0.8845 H   0  0  0  0  0  0  0  0  0  0  0  0
    2.1989    1.5828   -0.8716 H   0  0  0  0  0  0  0  0  0  0  0  0
   -2.2005    1.5806    0.8737 H   0  0  0  0  0  0  0  0  0  0  0  0
   -3.2701    0.4466    0.0045 H   0  0  0  0  0  0  0  0  0  0  0  0
   -2.2061    1.5717   -0.8824 H   0  0  0  0  0  0  0  0  0  0  0  0
  1  4  1  0  0  0  0
  2  4  2  0  0  0  0
  1  5  1  0  0  0  0
  3  5  2  0  0  0  0
  4  6  1  0  0  0  0
  5  7  1  0  0  0  0
  6  8  1  0  0  0  0
  6  9  1  0  0  0  0
  6 10  1  0  0  0  0
  7 11  1  0  0  0  0
  7 12  1  0  0  0  0
  7 13  1  0  0  0  0
M  END
