 xtb: 6.7.1 (edcfbbe)
          06072614023D

  8  7  0     0  0            999 V2000
   -0.3076    1.2668   -0.0001 O   0  0  0  0  0  0  0  0  0  0  0  0
   -0.9835   -0.8525    0.0001 O   0  0  0  0  0  0  0  0  0  0  0  0
    1.3771   -0.3683    0.0002 C   0  0  0  0  0  0  0  0  0  0  0  0
   -0.0823   -0.0393    0.0008 C   0  0  0  0  0  0  0  0  0  0  0  0
    1.8372    0.0687   -0.8825 H   0  0  0  0  0  0  0  0  0  0  0  0
    1.8405    0.0790    0.8757 H   0  0  0  0  0  0  0  0  0  0  0  0
    1.5152   -1.4439    0.0058 H   0  0  0  0  0  0  0  0  0  0  0  0
   -1.2588    1.4865   -0.0012 H   0  0  0  0  0  0  0  0  0  0  0  0
  1  4  1  0  0  0  0
  2  4  2  0  0  0  0
  3  4  1  0  0  0  0
  3  5  1  0  0  0  0
  3  6  1  0  0  0  0
  3  7  1  0  0  0  0
  1  8  1  0  0  0  0
M  END
