 xtb: 6.7.1 (edcfbbe)
          06082623203D

 14 13  0     0  0            999 V2000
   -0.1161    0.6620    0.0316 O   0  0  0  0  0  0  0  0  0  0  0  0
    1.0206   -1.2885   -0.1492 O   0  0  0  0  0  0  0  0  0  0  0  0
   -1.5756   -1.0729   -0.1241 O   0  0  0  0  0  0  0  0  0  0  0  0
    1.0790   -0.0970   -0.0373 C   0  0  0  0  0  0  0  0  0  0  0  0
   -1.3199    0.1553   -0.0178 C   0  0  0  0  0  0  0  0  0  0  0  0
    2.2378    0.7906    0.0459 C   0  0  0  0  0  0  0  0  0  0  0  0
   -2.4137    1.1175    0.0521 C   0  0  0  0  0  0  0  0  0  0  0  0
    3.1574    0.2139    0.0530 H   0  0  0  0  0  0  0  0  0  0  0  0
    2.1634    1.4100    0.9388 H   0  0  0  0  0  0  0  0  0  0  0  0
    2.2308    1.4751   -0.8031 H   0  0  0  0  0  0  0  0  0  0  0  0
   -2.2138    1.8728    0.8106 H   0  0  0  0  0  0  0  0  0  0  0  0
   -3.3584    0.6102    0.2229 H   0  0  0  0  0  0  0  0  0  0  0  0
   -2.4702    1.6616   -0.8946 H   0  0  0  0  0  0  0  0  0  0  0  0
   -0.8029   -1.7021   -0.1857 H   0  0  0  0  0  0  0  0  0  0  0  0
  1  4  1  0  0  0  0
  2  4  2  0  0  0  0
  1  5  4  0  0  0  0
  3  5  4  0  0  0  0
  4  6  1  0  0  0  0
  5  7  1  0  0  0  0
  6  8  1  0  0  0  0
  6  9  1  0  0  0  0
  6 10  1  0  0  0  0
  7 11  1  0  0  0  0
  7 12  1  0  0  0  0
  7 13  1  0  0  0  0
  3 14  1  0  0  0  0
M  CHG  1   1   1
M  END
