 xtb: 6.7.1 (edcfbbe)
          06092601523D

 25 25  0     0  0            999 V2000
   -0.7185    1.1286   -0.7352 O   0  0  0  0  0  0  0  0  0  0  0  0
    3.8059   -1.5202    1.2037 N   0  0  0  0  0  0  0  0  0  0  0  0
    2.5895   -0.8351    0.7105 C   0  0  0  0  0  0  0  0  0  0  0  0
    1.5747   -1.5812    0.1334 C   0  0  0  0  0  0  0  0  0  0  0  0
    2.5097    0.5470    0.7872 C   0  0  0  0  0  0  0  0  0  0  0  0
    0.3512    0.4506   -0.2759 C   0  0  0  0  0  0  0  0  0  0  0  0
    0.4549   -0.9380   -0.3570 C   0  0  0  0  0  0  0  0  0  0  0  0
    1.3895    1.1870    0.2996 C   0  0  0  0  0  0  0  0  0  0  0  0
    1.6535   -2.6536    0.0595 H   0  0  0  0  0  0  0  0  0  0  0  0
    3.3053    1.1232    1.2339 H   0  0  0  0  0  0  0  0  0  0  0  0
   -0.3414   -1.5141   -0.8016 H   0  0  0  0  0  0  0  0  0  0  0  0
    1.2911    2.2585    0.3546 H   0  0  0  0  0  0  0  0  0  0  0  0
    6.7208    0.8053   -1.6306 H   0  0  0  0  0  0  0  0  0  0  0  0
    4.6623   -2.9924   -1.5054 H   0  0  0  0  0  0  0  0  0  0  0  0
   -1.3873    0.5336   -1.1088 H   0  0  0  0  0  0  0  0  0  0  0  0
    5.5283   -1.0387   -0.4398 O   0  0  0  0  0  0  0  0  0  0  0  0
    5.7078    0.2896    1.3632 O   0  0  0  0  0  0  0  0  0  0  0  0
    4.2012   -2.9038   -0.6518 O   0  0  0  0  0  0  0  0  0  0  0  0
    6.0578    0.0173    0.2236 C   0  0  0  0  0  0  0  0  0  0  0  0
    4.6800   -1.9283    0.1158 C   0  0  0  0  0  0  0  0  0  0  0  0
    7.0580    0.7374   -0.6001 C   0  0  0  0  0  0  0  0  0  0  0  0
    4.3674   -0.8396    1.7800 H   0  0  0  0  0  0  0  0  0  0  0  0
    7.9960    0.1829   -0.5905 H   0  0  0  0  0  0  0  0  0  0  0  0
    7.2330    1.7247   -0.1848 H   0  0  0  0  0  0  0  0  0  0  0  0
    3.5421   -2.3480    1.7588 H   0  0  0  0  0  0  0  0  0  0  0  0
  2  3  1  0  0  0  0
  3  4  4  0  0  0  0
  3  5  4  0  0  0  0
  1  6  1  0  0  0  0
  4  7  4  0  0  0  0
  6  7  4  0  0  0  0
  5  8  4  0  0  0  0
  6  8  4  0  0  0  0
  4  9  1  0  0  0  0
  5 10  1  0  0  0  0
  7 11  1  0  0  0  0
  8 12  1  0  0  0  0
  1 15  1  0  0  0  0
 14 18  1  0  0  0  0
 16 19  1  0  0  0  0
 17 19  2  0  0  0  0
  2 20  1  0  0  0  0
 16 20  1  0  0  0  0
 18 20  4  0  0  0  0
 13 21  1  0  0  0  0
 19 21  1  0  0  0  0
  2 22  1  0  0  0  0
 21 23  1  0  0  0  0
 21 24  1  0  0  0  0
  2 25  1  0  0  0  0
M  CHG  1   1   1
M  END
