 xtb: 6.7.1 (edcfbbe)
          06072614023D

 15 15  0     0  0            999 V2000
   -2.7625    0.0284    0.0003 O   0  0  0  0  0  0  0  0  0  0  0  0
    2.7795    0.0042   -0.0019 N   0  0  0  0  0  0  0  0  0  0  0  0
    1.4143   -0.0025   -0.0005 C   0  0  0  0  0  0  0  0  0  0  0  0
    0.7008   -1.2035   -0.0003 C   0  0  0  0  0  0  0  0  0  0  0  0
    0.6889    1.1932   -0.0003 C   0  0  0  0  0  0  0  0  0  0  0  0
   -1.3883   -0.0155    0.0001 C   0  0  0  0  0  0  0  0  0  0  0  0
   -0.6806   -1.2095   -0.0000 C   0  0  0  0  0  0  0  0  0  0  0  0
   -0.6900    1.1866   -0.0000 C   0  0  0  0  0  0  0  0  0  0  0  0
    1.2378   -2.1406   -0.0003 H   0  0  0  0  0  0  0  0  0  0  0  0
    1.2174    2.1350   -0.0004 H   0  0  0  0  0  0  0  0  0  0  0  0
   -1.2096   -2.1524    0.0001 H   0  0  0  0  0  0  0  0  0  0  0  0
   -1.2480    2.1104    0.0001 H   0  0  0  0  0  0  0  0  0  0  0  0
    3.2855   -0.8595    0.0018 H   0  0  0  0  0  0  0  0  0  0  0  0
    3.2764    0.8729    0.0018 H   0  0  0  0  0  0  0  0  0  0  0  0
   -3.1181   -0.8717    0.0003 H   0  0  0  0  0  0  0  0  0  0  0  0
  2  3  1  0  0  0  0
  3  4  4  0  0  0  0
  3  5  4  0  0  0  0
  1  6  1  0  0  0  0
  4  7  4  0  0  0  0
  6  7  4  0  0  0  0
  5  8  4  0  0  0  0
  6  8  4  0  0  0  0
  4  9  1  0  0  0  0
  5 10  1  0  0  0  0
  7 11  1  0  0  0  0
  8 12  1  0  0  0  0
  2 13  1  0  0  0  0
  2 14  1  0  0  0  0
  1 15  1  0  0  0  0
M  END
