 xtb: 6.7.1 (edcfbbe)
          06072614023D

 15 15  0     0  0            999 V2000
   -2.7595    0.0254    0.0004 O   0  0  0  0  0  0  0  0  0  0  0  0
    2.7777    0.0038   -0.0025 N   0  0  0  0  0  0  0  0  0  0  0  0
    1.4066   -0.0031   -0.0007 C   0  0  0  0  0  0  0  0  0  0  0  0
    0.6987   -1.2041   -0.0004 C   0  0  0  0  0  0  0  0  0  0  0  0
    0.6864    1.1932   -0.0004 C   0  0  0  0  0  0  0  0  0  0  0  0
   -1.3898   -0.0135    0.0001 C   0  0  0  0  0  0  0  0  0  0  0  0
   -0.6833   -1.2080   -0.0000 C   0  0  0  0  0  0  0  0  0  0  0  0
   -0.6924    1.1891   -0.0000 C   0  0  0  0  0  0  0  0  0  0  0  0
    1.2385   -2.1402   -0.0005 H   0  0  0  0  0  0  0  0  0  0  0  0
    1.2208    2.1323   -0.0005 H   0  0  0  0  0  0  0  0  0  0  0  0
   -1.2170   -2.1499    0.0001 H   0  0  0  0  0  0  0  0  0  0  0  0
   -1.2488    2.1128    0.0002 H   0  0  0  0  0  0  0  0  0  0  0  0
    3.2888   -0.8568    0.0023 H   0  0  0  0  0  0  0  0  0  0  0  0
    3.2789    0.8703    0.0022 H   0  0  0  0  0  0  0  0  0  0  0  0
   -3.1020   -0.8757    0.0004 H   0  0  0  0  0  0  0  0  0  0  0  0
  2  3  1  0  0  0  0
  3  4  4  0  0  0  0
  3  5  4  0  0  0  0
  1  6  1  0  0  0  0
  4  7  4  0  0  0  0
  6  7  4  0  0  0  0
  5  8  4  0  0  0  0
  6  8  4  0  0  0  0
  4  9  1  0  0  0  0
  5 10  1  0  0  0  0
  7 11  1  0  0  0  0
  8 12  1  0  0  0  0
  2 13  1  0  0  0  0
  2 14  1  0  0  0  0
  1 15  1  0  0  0  0
M  END
