 xtb: 6.7.1 (edcfbbe)
          06072614023D

 13 12  0     0  0            999 V2000
   -0.0000    0.5663   -0.0001 O   0  0  0  0  0  0  0  0  0  0  0  0
    1.3548   -1.2642   -0.0028 O   0  0  0  0  0  0  0  0  0  0  0  0
   -1.3548   -1.2643    0.0026 O   0  0  0  0  0  0  0  0  0  0  0  0
    1.2148   -0.0839   -0.0016 C   0  0  0  0  0  0  0  0  0  0  0  0
   -1.2148   -0.0840    0.0016 C   0  0  0  0  0  0  0  0  0  0  0  0
    2.3084    0.9456    0.0013 C   0  0  0  0  0  0  0  0  0  0  0  0
   -2.3085    0.9455   -0.0010 C   0  0  0  0  0  0  0  0  0  0  0  0
    3.2744    0.4506   -0.0072 H   0  0  0  0  0  0  0  0  0  0  0  0
    2.2161    1.5691    0.8875 H   0  0  0  0  0  0  0  0  0  0  0  0
    2.2074    1.5839   -0.8730 H   0  0  0  0  0  0  0  0  0  0  0  0
   -2.2090    1.5816    0.8752 H   0  0  0  0  0  0  0  0  0  0  0  0
   -3.2744    0.4504    0.0048 H   0  0  0  0  0  0  0  0  0  0  0  0
   -2.2147    1.5712   -0.8853 H   0  0  0  0  0  0  0  0  0  0  0  0
  1  4  1  0  0  0  0
  2  4  2  0  0  0  0
  1  5  1  0  0  0  0
  3  5  2  0  0  0  0
  4  6  1  0  0  0  0
  5  7  1  0  0  0  0
  6  8  1  0  0  0  0
  6  9  1  0  0  0  0
  6 10  1  0  0  0  0
  7 11  1  0  0  0  0
  7 12  1  0  0  0  0
  7 13  1  0  0  0  0
M  END
