 xtb: 6.7.1 (edcfbbe)
          06072613503D

  8  7  0     0  0            999 V2000
   -0.3039    1.2790   -0.0002 O   0  0  0  0  0  0  0  0  0  0  0  0
   -0.9875   -0.8414   -0.0001 O   0  0  0  0  0  0  0  0  0  0  0  0
    1.3767   -0.3670    0.0001 C   0  0  0  0  0  0  0  0  0  0  0  0
   -0.0897   -0.0448   -0.0002 C   0  0  0  0  0  0  0  0  0  0  0  0
    1.8380    0.0673   -0.8835 H   0  0  0  0  0  0  0  0  0  0  0  0
    1.8407    0.0785    0.8766 H   0  0  0  0  0  0  0  0  0  0  0  0
    1.5188   -1.4426    0.0063 H   0  0  0  0  0  0  0  0  0  0  0  0
   -1.2552    1.4682   -0.0004 H   0  0  0  0  0  0  0  0  0  0  0  0
  1  4  1  0  0  0  0
  2  4  2  0  0  0  0
  3  4  1  0  0  0  0
  3  5  1  0  0  0  0
  3  6  1  0  0  0  0
  3  7  1  0  0  0  0
  1  8  1  0  0  0  0
M  END
