 xtb: 6.7.1 (edcfbbe)
          06072614023D

 20 20  0     0  0            999 V2000
    3.8672    0.3651    0.0001 O   0  0  0  0  0  0  0  0  0  0  0  0
   -2.6183    1.3771    0.0019 O   0  0  0  0  0  0  0  0  0  0  0  0
   -1.5872   -0.6605    0.0006 N   0  0  0  0  0  0  0  0  0  0  0  0
   -0.2229   -0.3369   -0.0000 C   0  0  0  0  0  0  0  0  0  0  0  0
    0.2505    0.9702    0.0006 C   0  0  0  0  0  0  0  0  0  0  0  0
    0.6931   -1.3886   -0.0008 C   0  0  0  0  0  0  0  0  0  0  0  0
    1.6108    1.2185    0.0006 C   0  0  0  0  0  0  0  0  0  0  0  0
    2.0488   -1.1412   -0.0007 C   0  0  0  0  0  0  0  0  0  0  0  0
    2.5212    0.1691    0.0000 C   0  0  0  0  0  0  0  0  0  0  0  0
   -2.6690    0.1531    0.0018 C   0  0  0  0  0  0  0  0  0  0  0  0
   -3.9751   -0.6064    0.0011 C   0  0  0  0  0  0  0  0  0  0  0  0
   -0.4477    1.7906    0.0012 H   0  0  0  0  0  0  0  0  0  0  0  0
    0.3409   -2.4088   -0.0013 H   0  0  0  0  0  0  0  0  0  0  0  0
   -1.7728   -1.6554   -0.0005 H   0  0  0  0  0  0  0  0  0  0  0  0
    1.9607    2.2403    0.0012 H   0  0  0  0  0  0  0  0  0  0  0  0
    2.7627   -1.9491   -0.0013 H   0  0  0  0  0  0  0  0  0  0  0  0
   -4.0506   -1.2151   -0.8962 H   0  0  0  0  0  0  0  0  0  0  0  0
   -4.7974    0.1024    0.0228 H   0  0  0  0  0  0  0  0  0  0  0  0
   -4.0334   -1.2519    0.8734 H   0  0  0  0  0  0  0  0  0  0  0  0
    4.0730    1.3116    0.0008 H   0  0  0  0  0  0  0  0  0  0  0  0
  3  4  1  0  0  0  0
  4  5  4  0  0  0  0
  4  6  4  0  0  0  0
  5  7  4  0  0  0  0
  6  8  4  0  0  0  0
  1  9  1  0  0  0  0
  7  9  4  0  0  0  0
  8  9  4  0  0  0  0
  2 10  2  0  0  0  0
  3 10  4  0  0  0  0
 10 11  1  0  0  0  0
  5 12  1  0  0  0  0
  6 13  1  0  0  0  0
  3 14  1  0  0  0  0
  7 15  1  0  0  0  0
  8 16  1  0  0  0  0
 11 17  1  0  0  0  0
 11 18  1  0  0  0  0
 11 19  1  0  0  0  0
  1 20  1  0  0  0  0
M  END
