 xtb: 6.7.1 (edcfbbe)
          06072622153D

 28 28  0     0  0            999 V2000
  -10.7195    1.4120   -1.2714 C   0  0  0  0  0  0  0  0  0  0  0  0
   -9.2834    0.9972   -1.4267 C   0  0  0  0  0  0  0  0  0  0  0  0
   -8.9149   -0.1242   -1.6750 O   0  0  0  0  0  0  0  0  0  0  0  0
   -8.4657    2.0394   -1.2636 O   0  0  0  0  0  0  0  0  0  0  0  0
   -7.0287    1.8360   -1.3646 C   0  0  0  0  0  0  0  0  0  0  0  0
   -6.5663    1.0804   -0.1121 C   0  0  0  0  0  0  0  0  0  0  0  0
   -6.7227    1.1806   -2.5442 O   0  0  0  0  0  0  0  0  0  0  0  0
   -6.5240    3.1749   -1.3673 N   0  0  0  0  0  0  0  0  0  0  0  0
   -5.2192    3.5323   -1.7057 C   0  0  0  0  0  0  0  0  0  0  0  0
   -4.1942    2.6190   -1.9245 C   0  0  0  0  0  0  0  0  0  0  0  0
   -2.9062    3.0562   -2.1809 C   0  0  0  0  0  0  0  0  0  0  0  0
   -2.6130    4.4104   -2.2297 C   0  0  0  0  0  0  0  0  0  0  0  0
   -1.3530    4.8787   -2.4762 O   0  0  0  0  0  0  0  0  0  0  0  0
   -3.6367    5.3308   -2.0297 C   0  0  0  0  0  0  0  0  0  0  0  0
   -4.9180    4.8947   -1.7730 C   0  0  0  0  0  0  0  0  0  0  0  0
  -11.3529    0.5306   -1.2595 H   0  0  0  0  0  0  0  0  0  0  0  0
  -10.9959    2.0500   -2.1080 H   0  0  0  0  0  0  0  0  0  0  0  0
  -10.8400    1.9828   -0.3548 H   0  0  0  0  0  0  0  0  0  0  0  0
   -6.9734    0.0723   -0.1122 H   0  0  0  0  0  0  0  0  0  0  0  0
   -6.9147    1.6167    0.7661 H   0  0  0  0  0  0  0  0  0  0  0  0
   -5.4829    1.0369   -0.0936 H   0  0  0  0  0  0  0  0  0  0  0  0
   -7.1335    0.2998   -2.5212 H   0  0  0  0  0  0  0  0  0  0  0  0
   -7.2196    3.8460   -1.6588 H   0  0  0  0  0  0  0  0  0  0  0  0
   -4.3968    1.5615   -1.9311 H   0  0  0  0  0  0  0  0  0  0  0  0
   -2.1229    2.3290   -2.3519 H   0  0  0  0  0  0  0  0  0  0  0  0
   -0.7550    4.1337   -2.6077 H   0  0  0  0  0  0  0  0  0  0  0  0
   -3.4079    6.3832   -2.0807 H   0  0  0  0  0  0  0  0  0  0  0  0
   -5.7064    5.6170   -1.6196 H   0  0  0  0  0  0  0  0  0  0  0  0
  1  2  1  0  0  0  0
  2  3  2  0  0  0  0
  2  4  1  0  0  0  0
  4  5  1  0  0  0  0
  5  6  1  0  0  0  0
  5  7  1  0  0  0  0
  5  8  1  0  0  0  0
  8  9  1  0  0  0  0
  9 10  4  0  0  0  0
 10 11  4  0  0  0  0
 11 12  4  0  0  0  0
 12 13  1  0  0  0  0
 12 14  4  0  0  0  0
  9 15  4  0  0  0  0
 14 15  4  0  0  0  0
  1 16  1  0  0  0  0
  1 17  1  0  0  0  0
  1 18  1  0  0  0  0
  6 19  1  0  0  0  0
  6 20  1  0  0  0  0
  6 21  1  0  0  0  0
  7 22  1  0  0  0  0
  8 23  1  0  0  0  0
 10 24  1  0  0  0  0
 11 25  1  0  0  0  0
 13 26  1  0  0  0  0
 14 27  1  0  0  0  0
 15 28  1  0  0  0  0
M  END
